
     RDKit          3D

 29 32  0  0  0  0  0  0  0  0999 V2000
    1.8946    0.4510    0.6965 N   0  0  0  0  0  0  0  0  0  0  0  0
    2.1348    0.4914   -0.6100 N   0  0  0  0  0  0  0  0  0  0  0  0
    0.9543    0.2496   -1.1460 C   0  0  0  0  0  0  0  0  0  0  0  0
   -0.0471    0.0559   -0.1878 C   0  0  0  0  0  0  0  0  0  0  0  0
    0.5970    0.1934    1.0217 C   0  0  0  0  0  0  0  0  0  0  0  0
    0.1144    0.1020    2.3905 C   0  0  0  0  0  0  0  0  0  0  0  0
    0.9547    0.2088    3.4983 C   0  0  0  0  0  0  0  0  0  0  0  0
    0.4109    0.1093    4.7680 C   0  0  0  0  0  0  0  0  0  0  0  0
   -0.8805   -0.0870    5.0063 N   0  0  0  0  0  0  0  0  0  0  0  0
   -1.6810   -0.1900    3.9510 C   0  0  0  0  0  0  0  0  0  0  0  0
   -1.2422   -0.1034    2.6412 C   0  0  0  0  0  0  0  0  0  0  0  0
   -1.3598   -0.2206   -0.8434 C   0  0  0  0  0  0  0  0  0  0  0  0
   -0.9748   -0.1564   -2.3109 C   0  0  0  0  0  0  0  0  0  0  0  0
    0.3926    0.1228   -2.4805 C   0  0  0  0  0  0  0  0  0  0  0  0
    0.9493    0.2282   -3.7459 C   0  0  0  0  0  0  0  0  0  0  0  0
    0.1244    0.0514   -4.8508 C   0  0  0  0  0  0  0  0  0  0  0  0
   -1.2292   -0.2263   -4.6881 C   0  0  0  0  0  0  0  0  0  0  0  0
   -1.7868   -0.3310   -3.4161 C   0  0  0  0  0  0  0  0  0  0  0  0
    2.6579    0.6219    1.3323 H   0  0  0  0  0  0  0  0  0  0  0  0
    2.0209    0.3626    3.4016 H   0  0  0  0  0  0  0  0  0  0  0  0
    1.0584    0.1928    5.6335 H   0  0  0  0  0  0  0  0  0  0  0  0
   -2.7342   -0.3485    4.1534 H   0  0  0  0  0  0  0  0  0  0  0  0
   -1.9587   -0.1922    1.8361 H   0  0  0  0  0  0  0  0  0  0  0  0
   -2.1267    0.5203   -0.6001 H   0  0  0  0  0  0  0  0  0  0  0  0
   -1.7718   -1.1982   -0.5779 H   0  0  0  0  0  0  0  0  0  0  0  0
    2.0026    0.4423   -3.8748 H   0  0  0  0  0  0  0  0  0  0  0  0
    0.5389    0.1312   -5.8473 H   0  0  0  0  0  0  0  0  0  0  0  0
   -1.8563   -0.3624   -5.5596 H   0  0  0  0  0  0  0  0  0  0  0  0
   -2.8425   -0.5438   -3.2993 H   0  0  0  0  0  0  0  0  0  0  0  0
  1  2  1  0
  1  5  1  0
  1 19  1  0
  2  3  2  0
  3  4  1  0
  3 14  1  0
  4  5  2  0
  4 12  1  0
  5  6  1  0
  6  7  2  0
  6 11  1  0
  7  8  1  0
  7 20  1  0
  8  9  2  0
  8 21  1  0
  9 10  1  0
 10 11  2  0
 10 22  1  0
 11 23  1  0
 12 13  1  0
 12 24  1  0
 12 25  1  0
 13 14  2  0
 13 18  1  0
 14 15  1  0
 15 16  2  0
 15 26  1  0
 16 17  1  0
 16 27  1  0
 17 18  2  0
 17 28  1  0
 18 29  1  0
M  END
