
     RDKit          3D

 36 38  0  0  0  0  0  0  0  0999 V2000
   -3.6962    1.0616    0.4926 C   0  0  0  0  0  0  0  0  0  0  0  0
   -4.3163    2.2970    0.4049 C   0  0  0  0  0  0  0  0  0  0  0  0
   -4.1061    3.0879   -0.7160 C   0  0  0  0  0  0  0  0  0  0  0  0
   -3.2860    2.6512   -1.7461 C   0  0  0  0  0  0  0  0  0  0  0  0
    4.7077    2.1668    0.2672 F   0  0  0  0  0  0  0  0  0  0  0  0
   -2.6778    1.4081   -1.6618 C   0  0  0  0  0  0  0  0  0  0  0  0
    6.0462    0.4826    0.2231 F   0  0  0  0  0  0  0  0  0  0  0  0
   -2.8833    0.6120   -0.5446 C   0  0  0  0  0  0  0  0  0  0  0  0
    4.8453    0.8543    1.9662 F   0  0  0  0  0  0  0  0  0  0  0  0
   -2.2426   -0.6420   -0.4516 N   0  0  0  0  0  0  0  0  0  0  0  0
   -2.9246   -1.8047   -0.5983 N   0  0  0  0  0  0  0  0  0  0  0  0
   -2.0501   -2.7630   -0.4355 C   0  0  0  0  0  0  0  0  0  0  0  0
   -0.9509   -0.8804   -0.1921 C   0  0  0  0  0  0  0  0  0  0  0  0
   -0.7614   -2.2433   -0.1715 C   0  0  0  0  0  0  0  0  0  0  0  0
    0.0610   -0.0087    0.0208 N   0  0  0  0  0  0  0  0  0  0  0  0
    1.2891   -0.5389    0.2691 C   0  0  0  0  0  0  0  0  0  0  0  0
    1.5380   -1.8037    0.3004 N   0  0  0  0  0  0  0  0  0  0  0  0
    0.5580   -2.7674    0.0835 C   0  0  0  0  0  0  0  0  0  0  0  0
    0.8359   -3.9543    0.1166 O   0  0  0  0  0  0  0  0  0  0  0  0
    2.3693    0.4590    0.5652 C   0  0  0  0  0  0  0  0  0  0  0  0
    3.7360    0.0086    0.0460 C   0  0  1  0  0  0  0  0  0  0  0  0
    3.7779    0.0076   -1.4799 C   0  0  0  0  0  0  0  0  0  0  0  0
    4.8298    0.8779    0.6243 C   0  0  1  0  0  0  0  0  0  0  0  0
   -3.9152    0.0846    1.8937 Cl  0  0  0  0  0  0  0  0  0  0  0  0
   -4.9501    2.6426    1.2097 H   0  0  0  0  0  0  0  0  0  0  0  0
   -4.5881    4.0541   -0.7781 H   0  0  0  0  0  0  0  0  0  0  0  0
   -3.1249    3.2723   -2.6161 H   0  0  0  0  0  0  0  0  0  0  0  0
   -2.0469    1.0454   -2.4632 H   0  0  0  0  0  0  0  0  0  0  0  0
   -2.3510   -3.7963   -0.5118 H   0  0  0  0  0  0  0  0  0  0  0  0
   -0.0729    0.9931    0.0001 H   0  0  0  0  0  0  0  0  0  0  0  0
    2.0997    1.4281    0.1405 H   0  0  0  0  0  0  0  0  0  0  0  0
    2.3780    0.5850    1.6521 H   0  0  0  0  0  0  0  0  0  0  0  0
    3.9244   -1.0058    0.4072 H   0  0  0  0  0  0  0  0  0  0  0  0
    3.0354   -0.6890   -1.8654 H   0  0  0  0  0  0  0  0  0  0  0  0
    3.5535    0.9920   -1.8919 H   0  0  0  0  0  0  0  0  0  0  0  0
    4.7448   -0.3143   -1.8631 H   0  0  0  0  0  0  0  0  0  0  0  0
  3  2  1  0
  3  4  2  0
  2  1  2  0
  4  6  1  0
 22 21  1  0
  1 24  1  0
  1  8  1  0
  6  8  2  0
  8 10  1  0
 21 20  1  0
 21 23  1  0
 20 16  1  0
 23  9  1  1
 15 16  1  0
 15 13  1  0
 23  7  1  0
 23  5  1  0
 10 13  1  0
 10 11  1  0
 16 17  2  0
 13 14  2  0
 11 12  2  0
 17 18  1  0
 14 12  1  0
 14 18  1  0
 18 19  2  0
  2 25  1  0
  3 26  1  0
  4 27  1  0
  6 28  1  0
 12 29  1  0
 15 30  1  0
 20 31  1  0
 20 32  1  0
 21 33  1  1
 22 34  1  0
 22 35  1  0
 22 36  1  0
M  END
